<?xml version="1.0" encoding="UTF-8"?>

<!-- generated on Sun Feb  2 19:19:29 2020 by Eclipse SUMO netconvert Version 1.4.0
<configuration xmlns:xsi="http://www.w3.org/2001/XMLSchema-instance" xsi:noNamespaceSchemaLocation="http://sumo.dlr.de/xsd/netconvertConfiguration.xsd">

    <input>
        <osm-files value="map.osm"/>
    </input>

    <output>
        <output-file value="sumo_iisc"/>
    </output>

    <projection>
        <proj.utm value="true"/>
    </projection>

    <report>
        <aggregate-warnings value="5"/>
    </report>

</configuration>
-->

<net version="1.3" junctionCornerDetail="5" limitTurnSpeed="5.50" xmlns:xsi="http://www.w3.org/2001/XMLSchema-instance" xsi:noNamespaceSchemaLocation="http://sumo.dlr.de/xsd/net_file.xsd">

    <location netOffset="-777164.97,-1439537.22" convBoundary="0.00,0.00,3103.93,2156.74" origBoundary="77.555387,13.007893,77.583901,13.028456" projParameter="+proj=utm +zone=43 +ellps=WGS84 +datum=WGS84 +units=m +no_defs"/>

    <type id="highway.bridleway" priority="1" numLanes="1" speed="2.78" allow="pedestrian" oneway="1" width="2.00"/>
    <type id="highway.bus_guideway" priority="1" numLanes="1" speed="27.78" allow="bus" oneway="1"/>
    <type id="highway.cycleway" priority="1" numLanes="1" speed="8.33" allow="bicycle" oneway="0" width="1.00"/>
    <type id="highway.footway" priority="1" numLanes="1" speed="2.78" allow="pedestrian" oneway="1" width="2.00"/>
    <type id="highway.ford" priority="1" numLanes="1" speed="2.78" allow="army" oneway="0"/>
    <type id="highway.living_street" priority="2" numLanes="1" speed="2.78" disallow="tram rail_urban rail rail_electric rail_fast ship" oneway="0"/>
    <type id="highway.motorway" priority="14" numLanes="2" speed="39.44" allow="private emergency authority army vip passenger hov taxi bus coach delivery truck trailer motorcycle evehicle custom1 custom2" oneway="1"/>
    <type id="highway.motorway_link" priority="9" numLanes="1" speed="22.22" allow="private emergency authority army vip passenger hov taxi bus coach delivery truck trailer motorcycle evehicle custom1 custom2" oneway="1"/>
    <type id="highway.path" priority="1" numLanes="1" speed="2.78" allow="pedestrian bicycle" oneway="1" width="2.00"/>
    <type id="highway.pedestrian" priority="1" numLanes="1" speed="2.78" allow="pedestrian" oneway="1" width="2.00"/>
    <type id="highway.primary" priority="12" numLanes="2" speed="27.78" disallow="tram rail_urban rail rail_electric rail_fast ship" oneway="0"/>
    <type id="highway.primary_link" priority="7" numLanes="1" speed="22.22" disallow="tram rail_urban rail rail_electric rail_fast ship" oneway="0"/>
    <type id="highway.raceway" priority="15" numLanes="2" speed="83.33" allow="vip" oneway="0"/>
    <type id="highway.residential" priority="3" numLanes="1" speed="13.89" disallow="tram rail_urban rail rail_electric rail_fast ship" oneway="0"/>
    <type id="highway.secondary" priority="11" numLanes="1" speed="27.78" disallow="tram rail_urban rail rail_electric rail_fast ship" oneway="0"/>
    <type id="highway.secondary_link" priority="6" numLanes="1" speed="22.22" disallow="tram rail_urban rail rail_electric rail_fast ship" oneway="0"/>
    <type id="highway.service" priority="1" numLanes="1" speed="5.56" allow="pedestrian delivery bicycle" oneway="0"/>
    <type id="highway.stairs" priority="1" numLanes="1" speed="1.39" allow="pedestrian" oneway="1" width="2.00"/>
    <type id="highway.step" priority="1" numLanes="1" speed="1.39" allow="pedestrian" oneway="1" width="2.00"/>
    <type id="highway.steps" priority="1" numLanes="1" speed="1.39" allow="pedestrian" oneway="1" width="2.00"/>
    <type id="highway.tertiary" priority="10" numLanes="1" speed="22.22" disallow="tram rail_urban rail rail_electric rail_fast ship" oneway="0"/>
    <type id="highway.tertiary_link" priority="5" numLanes="1" speed="22.22" disallow="tram rail_urban rail rail_electric rail_fast ship" oneway="0"/>
    <type id="highway.track" priority="1" numLanes="1" speed="5.56" disallow="tram rail_urban rail rail_electric rail_fast ship" oneway="0"/>
    <type id="highway.trunk" priority="13" numLanes="2" speed="27.78" disallow="pedestrian bicycle tram rail_urban rail rail_electric rail_fast ship" oneway="0"/>
    <type id="highway.trunk_link" priority="8" numLanes="1" speed="22.22" disallow="pedestrian bicycle tram rail_urban rail rail_electric rail_fast ship" oneway="0"/>
    <type id="highway.unclassified" priority="4" numLanes="1" speed="13.89" disallow="tram rail_urban rail rail_electric rail_fast ship" oneway="0"/>
    <type id="highway.unsurfaced" priority="1" numLanes="1" speed="8.33" disallow="tram rail_urban rail rail_electric rail_fast ship" oneway="0"/>
    <type id="railway.highspeed" priority="21" numLanes="1" speed="69.44" allow="rail_fast" oneway="1"/>
    <type id="railway.light_rail" priority="19" numLanes="1" speed="27.78" allow="rail_urban" oneway="1"/>
    <type id="railway.preserved" priority="16" numLanes="1" speed="27.78" allow="rail" oneway="1"/>
    <type id="railway.rail" priority="20" numLanes="1" speed="44.44" allow="rail" oneway="1"/>
    <type id="railway.subway" priority="18" numLanes="1" speed="27.78" allow="rail_urban" oneway="1"/>
    <type id="railway.tram" priority="17" numLanes="1" speed="13.89" allow="tram" oneway="1"/>

    <edge id=":1085546652_0" function="internal">
        <lane id=":1085546652_0_0" index="0" allow="pedestrian delivery bicycle" speed="5.56" length="5.15" shape="1587.68,924.17 1587.50,922.71 1587.00,921.56 1586.17,920.74 1585.02,920.23"/>
    </edge>
    <edge id=":1085546652_1" function="internal">
        <lane id=":1085546652_1_0" index="0" allow="pedestrian bicycle" speed="4.17" length="6.30" width="2.00" shape="1587.68,924.17 1587.52,921.99 1587.09,920.35 1586.39,919.25 1585.44,918.68"/>
    </edge>
    <edge id=":1085546652_2" function="internal">
        <lane id=":1085546652_2_0" index="0" allow="pedestrian delivery bicycle" speed="5.56" length="9.76" shape="1587.68,924.17 1588.02,921.54 1589.09,919.59 1590.92,918.30 1593.49,917.68"/>
    </edge>
    <edge id=":1085546652_3" function="internal">
        <lane id=":1085546652_3_0" index="0" allow="pedestrian bicycle" speed="4.17" length="8.59" width="2.00" shape="1587.68,924.17 1588.03,922.24 1589.14,920.79 1591.02,919.80 1593.65,919.27"/>
    </edge>
    <edge id=":1085546652_4" function="internal">
        <lane id=":1085546652_4_0" index="0" allow="pedestrian delivery bicycle" speed="3.24" length="3.20" shape="1587.68,924.17 1590.88,924.12"/>
    </edge>
    <edge id=":1085546652_5" function="internal">
        <lane id=":1085546652_5_0" index="0" allow="pedestrian delivery bicycle" speed="4.17" length="5.53" shape="1588.28,924.16 1588.06,922.76 1587.45,921.64 1586.43,920.80 1585.02,920.23"/>
    </edge>
    <edge id=":1085546652_6" function="internal">
        <lane id=":1085546652_6_0" index="0" allow="pedestrian bicycle" speed="2.78" length="6.63" width="2.00" shape="1588.28,924.16 1588.08,922.04 1587.54,920.43 1586.66,919.31 1585.44,918.68"/>
    </edge>
    <edge id=":1085546652_7" function="internal">
        <lane id=":1085546652_7_0" index="0" allow="pedestrian delivery bicycle" speed="4.17" length="9.31" shape="1588.28,924.16 1588.58,921.52 1589.54,919.55 1591.18,918.27 1593.49,917.68"/>
    </edge>
    <edge id=":1085546652_8" function="internal">
        <lane id=":1085546652_8_0" index="0" allow="pedestrian bicycle" speed="2.78" length="8.11" width="2.00" shape="1588.28,924.16 1588.60,922.22 1589.59,920.76 1591.28,919.77 1593.65,919.27"/>
    </edge>
    <edge id=":1085546652_9" function="internal">
        <lane id=":1085546652_9_0" index="0" allow="pedestrian delivery bicycle" speed="3.16" length="3.80" shape="1588.28,924.16 1588.92,923.18 1589.57,922.84 1590.22,923.16 1590.88,924.12"/>
    </edge>
    <edge id=":1085546652_10" function="internal">
        <lane id=":1085546652_10_0" index="0" allow="pedestrian delivery bicycle" speed="5.14" length="4.90" shape="1593.80,920.86 1592.51,921.17 1591.59,921.82 1591.05,922.80 1590.88,924.12"/>
    </edge>
    <edge id=":1085546652_11" function="internal">
        <lane id=":1085546652_11_0" index="0" allow="pedestrian delivery bicycle" speed="5.56" length="8.89" shape="1593.80,920.86 1591.18,921.10 1589.36,921.13 1587.57,920.87 1585.02,920.23"/>
    </edge>
    <edge id=":1085546652_12" function="internal">
        <lane id=":1085546652_12_0" index="0" allow="pedestrian bicycle" speed="4.17" length="8.77" width="2.00" shape="1593.80,920.86 1591.27,920.86 1589.57,920.35 1587.90,919.55 1585.44,918.68"/>
    </edge>
    <edge id=":1085546652_13" function="internal">
        <lane id=":1085546652_13_0" index="0" allow="pedestrian bicycle" speed="2.73" length="1.60" width="2.00" shape="1593.80,920.86 1593.65,919.27"/>
    </edge>
    <edge id=":1085546652_14" function="internal">
        <lane id=":1085546652_14_0" index="0" allow="pedestrian delivery bicycle" speed="3.65" length="1.27" shape="1593.80,920.86 1592.68,920.26"/>
    </edge>
    <edge id=":1085546652_20" function="internal">
        <lane id=":1085546652_20_0" index="0" allow="pedestrian delivery bicycle" speed="3.65" length="3.41" shape="1592.68,920.26 1592.53,920.18 1592.06,919.42 1592.38,918.59 1593.49,917.68"/>
    </edge>
    <edge id=":1085546652_15" function="internal">
        <lane id=":1085546652_15_0" index="0" allow="pedestrian delivery bicycle" speed="5.56" length="7.74" shape="1585.85,917.14 1588.07,917.69 1589.63,917.92 1591.21,917.89 1593.49,917.68"/>
    </edge>
    <edge id=":1085546652_16" function="internal">
        <lane id=":1085546652_16_0" index="0" allow="pedestrian bicycle" speed="4.17" length="8.21" width="2.00" shape="1585.85,917.14 1588.15,917.97 1589.70,918.74 1591.28,919.25 1593.65,919.27"/>
    </edge>
    <edge id=":1085546652_17" function="internal">
        <lane id=":1085546652_17_0" index="0" allow="pedestrian delivery bicycle" speed="5.56" length="3.64" shape="1585.85,917.14 1588.02,918.07 1588.95,918.95"/>
    </edge>
    <edge id=":1085546652_18" function="internal">
        <lane id=":1085546652_18_0" index="0" allow="pedestrian bicycle" speed="2.73" length="1.60" width="2.00" shape="1585.85,917.14 1585.44,918.68"/>
    </edge>
    <edge id=":1085546652_19" function="internal">
        <lane id=":1085546652_19_0" index="0" allow="pedestrian delivery bicycle" speed="3.65" length="1.22" shape="1585.85,917.14 1586.65,918.05"/>
    </edge>
    <edge id=":1085546652_21" function="internal">
        <lane id=":1085546652_21_0" index="0" allow="pedestrian delivery bicycle" speed="5.56" length="5.69" shape="1588.95,918.95 1589.59,919.55 1590.54,921.56 1590.88,924.12"/>
    </edge>
    <edge id=":1085546652_22" function="internal">
        <lane id=":1085546652_22_0" index="0" allow="pedestrian delivery bicycle" speed="3.65" length="3.45" shape="1586.65,918.05 1586.80,918.22 1586.98,919.10 1586.39,919.77 1585.02,920.23"/>
    </edge>
    <edge id=":1085546691_0" function="internal">
        <lane id=":1085546691_0_0" index="0" allow="pedestrian bicycle" speed="2.78" length="1.78" width="2.00" shape="1715.83,1661.81 1715.78,1662.30 1715.58,1662.64 1715.23,1662.83 1714.74,1662.85"/>
    </edge>
    <edge id=":1085546698_0" function="internal">
        <lane id=":1085546698_0_0" index="0" allow="pedestrian delivery bicycle" speed="5.56" length="3.00" shape="1381.30,1175.93 1381.15,1172.93"/>
    </edge>
    <edge id=":1085546698_1" function="internal">
        <lane id=":1085546698_1_0" index="0" allow="pedestrian delivery bicycle" speed="3.65" length="4.67" shape="1381.30,1175.93 1382.04,1174.69 1382.82,1174.25 1383.64,1174.62 1384.49,1175.78"/>
    </edge>
    <edge id=":1085546698_2" function="internal">
        <lane id=":1085546698_2_0" index="0" allow="pedestrian delivery bicycle" speed="5.56" length="3.00" shape="1384.35,1172.78 1384.49,1175.78"/>
    </edge>
    <edge id=":1085546698_3" function="internal">
        <lane id=":1085546698_3_0" index="0" allow="pedestrian delivery bicycle" speed="3.65" length="4.67" shape="1384.35,1172.78 1383.61,1174.02 1382.83,1174.45 1382.01,1174.09 1381.15,1172.93"/>
    </edge>
    <edge id=":1085546741_0" function="internal">
        <lane id=":1085546741_0_0" index="0" allow="pedestrian delivery bicycle" speed="5.07" length="5.02" shape="1213.25,1198.58 1212.97,1197.24 1212.33,1196.31 1211.31,1195.78 1209.94,1195.65"/>
    </edge>
    <edge id=":1085546741_1" function="internal">
        <lane id=":1085546741_1_0" index="0" disallow="tram rail_urban rail rail_electric rail_fast ship" speed="13.89" length="10.83" shape="1213.25,1198.58 1212.66,1187.76"/>
    </edge>
    <edge id=":1085546741_2" function="internal">
        <lane id=":1085546741_2_0" index="0" disallow="tram rail_urban rail rail_electric rail_fast ship" speed="3.65" length="2.34" shape="1213.25,1198.58 1213.97,1197.33 1214.75,1196.88"/>
    </edge>
    <edge id=":1085546741_9" function="internal">
        <lane id=":1085546741_9_0" index="0" disallow="tram rail_urban rail rail_electric rail_fast ship" speed="3.65" length="2.34" shape="1214.75,1196.88 1215.57,1197.23 1216.44,1198.38"/>
    </edge>
    <edge id=":1085546741_3" function="internal">
        <lane id=":1085546741_3_0" index="0" disallow="tram rail_urban rail rail_electric rail_fast ship" speed="13.89" length="10.79" shape="1215.86,1187.60 1216.44,1198.38"/>
    </edge>
    <edge id=":1085546741_4" function="internal">
        <lane id=":1085546741_4_0" index="0" allow="pedestrian delivery bicycle" speed="7.22" length="6.11" shape="1215.86,1187.60 1215.63,1191.01 1214.57,1193.49"/>
    </edge>
    <edge id=":1085546741_5" function="internal">
        <lane id=":1085546741_5_0" index="0" disallow="tram rail_urban rail rail_electric rail_fast ship" speed="3.65" length="2.34" shape="1215.86,1187.60 1215.12,1188.84 1214.34,1189.28"/>
    </edge>
    <edge id=":1085546741_10" function="internal">
        <lane id=":1085546741_10_0" index="0" allow="pedestrian delivery bicycle" speed="7.22" length="5.25" shape="1214.57,1193.49 1212.67,1195.04 1209.94,1195.65"/>
    </edge>
    <edge id=":1085546741_11" function="internal">
        <lane id=":1085546741_11_0" index="0" disallow="tram rail_urban rail rail_electric rail_fast ship" speed="3.65" length="2.34" shape="1214.34,1189.28 1213.52,1188.92 1212.66,1187.76"/>
    </edge>
    <edge id=":1085546741_6" function="internal">
        <lane id=":1085546741_6_0" index="0" disallow="tram rail_urban rail rail_electric rail_fast ship" speed="5.52" length="6.22" shape="1209.79,1192.45 1211.13,1192.11 1212.06,1191.21 1212.57,1189.76 1212.66,1187.76"/>
    </edge>
    <edge id=":1085546741_7" function="internal">
        <lane id=":1085546741_7_0" index="0" disallow="tram rail_urban rail rail_electric rail_fast ship" speed="6.89" length="10.13" shape="1209.79,1192.45 1212.56,1192.71 1214.59,1193.79 1215.88,1195.68 1216.44,1198.38"/>
    </edge>
    <edge id=":1085546741_8" function="internal">
        <lane id=":1085546741_8_0" index="0" allow="pedestrian delivery bicycle" speed="3.65" length="4.67" shape="1209.79,1192.45 1211.02,1193.20 1211.46,1193.98 1211.10,1194.80 1209.94,1195.65"/>
    </edge>
    <edge id=":1085546763_0" function="internal">
        <lane id=":1085546763_0_0" index="0" allow="pedestrian delivery bicycle" speed="5.56" length="5.00" shape="1300.85,1251.59 1295.85,1251.83"/>
    </edge>
    <edge id=":1085546763_1" function="internal">
        <lane id=":1085546763_1_0" index="0" allow="pedestrian delivery bicycle" speed="3.65" length="2.34" shape="1300.85,1251.59 1299.61,1250.85 1299.18,1250.07"/>
    </edge>
    <edge id=":1085546763_4" function="internal">
        <lane id=":1085546763_4_0" index="0" allow="pedestrian delivery bicycle" speed="3.65" length="2.34" shape="1299.18,1250.07 1299.54,1249.25 1300.70,1248.40"/>
    </edge>
    <edge id=":1085546763_2" function="internal">
        <lane id=":1085546763_2_0" index="0" allow="pedestrian delivery bicycle" speed="5.56" length="5.00" shape="1295.70,1248.63 1300.70,1248.40"/>
    </edge>
    <edge id=":1085546763_3" function="internal">
        <lane id=":1085546763_3_0" index="0" allow="pedestrian delivery bicycle" speed="3.65" length="2.34" shape="1295.70,1248.63 1296.94,1249.37 1297.38,1250.16"/>
    </edge>
    <edge id=":1085546763_5" function="internal">
        <lane id=":1085546763_5_0" index="0" allow="pedestrian delivery bicycle" speed="3.65" length="2.34" shape="1297.38,1250.16 1297.02,1250.97 1295.85,1251.83"/>
    </edge>
    <edge id=":1085546764_0" function="internal">
        <lane id=":1085546764_0_0" index="0" allow="pedestrian delivery bicycle" speed="5.56" length="8.87" shape="1566.14,909.22 1563.96,906.88 1562.08,905.24 1560.48,904.30 1559.18,904.05"/>
    </edge>
    <edge id=":1085546764_1" function="internal">
        <lane id=":1085546764_1_0" index="0" allow="pedestrian delivery bicycle" speed="5.56" length="14.52" shape="1566.14,909.22 1563.65,905.49 1563.45,902.72 1565.55,900.91 1569.95,900.04"/>
    </edge>
    <edge id=":1085546764_2" function="internal">
        <lane id=":1085546764_2_0" index="0" allow="pedestrian delivery bicycle" speed="3.65" length="4.67" shape="1566.14,909.22 1565.96,907.78 1566.30,906.96 1567.17,906.74 1568.56,907.12"/>
    </edge>
    <edge id=":1085546764_3" function="internal">
        <lane id=":1085546764_3_0" index="0" allow="pedestrian delivery bicycle" speed="4.66" length="6.14" shape="1570.17,903.24 1568.31,903.60 1567.42,904.37 1567.50,905.54 1568.56,907.12"/>
    </edge>
    <edge id=":1085546764_4" function="internal">
        <lane id=":1085546764_4_0" index="0" allow="pedestrian delivery bicycle" speed="5.56" length="11.02" shape="1570.17,903.24 1559.18,904.05"/>
    </edge>
    <edge id=":1085546764_5" function="internal">
        <lane id=":1085546764_5_0" index="0" allow="pedestrian delivery bicycle" speed="3.65" length="4.67" shape="1570.17,903.24 1568.92,902.52 1568.46,901.75 1568.81,900.93 1569.95,900.04"/>
    </edge>
    <edge id=":1085546764_6" function="internal">
        <lane id=":1085546764_6_0" index="0" allow="pedestrian delivery bicycle" speed="5.56" length="11.07" shape="1558.91,900.86 1569.95,900.04"/>
    </edge>
    <edge id=":1085546764_7" function="internal">
        <lane id=":1085546764_7_0" index="0" allow="pedestrian delivery bicycle" speed="5.56" length="11.85" shape="1558.91,900.86 1560.99,901.13 1563.29,902.26 1565.81,904.25 1568.56,907.12"/>
    </edge>
    <edge id=":1085546764_8" function="internal">
        <lane id=":1085546764_8_0" index="0" allow="pedestrian delivery bicycle" speed="3.65" length="4.67" shape="1558.91,900.86 1560.17,901.56 1560.64,902.32 1560.31,903.15 1559.18,904.05"/>
    </edge>
    <edge id=":1085546799_0" function="internal">
        <lane id=":1085546799_0_0" index="0" allow="pedestrian bicycle" speed="2.78" length="5.56" width="2.00" shape="1219.94,889.38 1221.44,890.07 1222.52,890.45 1223.64,890.60 1225.28,890.57"/>
    </edge>
    <edge id=":1085546830_0" function="internal">
        <lane id=":1085546830_0_0" index="0" disallow="tram rail_urban rail rail_electric rail_fast ship" speed="13.89" length="5.60" shape="1206.09,1044.51 1205.83,1038.91"/>
    </edge>
    <edge id=":1085546830_1" function="internal">
        <lane id=":1085546830_1_0" index="0" disallow="tram rail_urban rail rail_electric rail_fast ship" speed="3.65" length="2.34" shape="1206.09,1044.51 1206.83,1043.27 1207.61,1042.84"/>
    </edge>
    <edge id=":1085546830_4" function="internal">
        <lane id=":1085546830_4_0" index="0" disallow="tram rail_urban rail rail_electric rail_fast ship" speed="3.65" length="2.34" shape="1207.61,1042.84 1208.43,1043.20 1209.29,1044.36"/>
    </edge>
    <edge id=":1085546830_2" function="internal">
        <lane id=":1085546830_2_0" index="0" disallow="tram rail_urban rail rail_electric rail_fast ship" speed="13.89" length="5.60" shape="1209.03,1038.76 1209.29,1044.36"/>
    </edge>
    <edge id=":1085546830_3" function="internal">
        <lane id=":1085546830_3_0" index="0" disallow="tram rail_urban rail rail_electric rail_fast ship" speed="3.65" length="2.34" shape="1209.03,1038.76 1208.29,1040.00 1207.50,1040.44"/>
    </edge>
    <edge id=":1085546830_5" function="internal">
        <lane id=":1085546830_5_0" index="0" disallow="tram rail_urban rail rail_electric rail_fast ship" speed="3.65" length="2.34" shape="1207.50,1040.44 1206.69,1040.07 1205.83,1038.91"/>
    </edge>
    <edge id=":1085546834_0" function="internal">
        <lane id=":1085546834_0_0" index="0" disallow="tram rail_urban rail rail_electric rail_fast ship" speed="13.89" length="5.58" shape="1202.19,937.13 1201.92,931.56"/>
    </edge>
    <edge id=":1085546834_1" function="internal">
        <lane id=":1085546834_1_0" index="0" disallow="tram rail_urban rail rail_electric rail_fast ship" speed="3.65" length="2.34" shape="1202.19,937.13 1202.98,935.92 1203.77,935.51"/>
    </edge>
    <edge id=":1085546834_4" function="internal">
        <lane id=":1085546834_4_0" index="0" disallow="tram rail_urban rail rail_electric rail_fast ship" speed="3.65" length="2.34" shape="1203.77,935.51 1204.57,935.90 1205.39,937.09"/>
    </edge>
    <edge id=":1085546834_2" function="internal">
        <lane id=":1085546834_2_0" index="0" disallow="tram rail_urban rail rail_electric rail_fast ship" speed="13.89" length="5.69" shape="1205.11,931.41 1205.39,937.09"/>
    </edge>
    <edge id=":1085546834_3" function="internal">
        <lane id=":1085546834_3_0" index="0" disallow="tram rail_urban rail rail_electric rail_fast ship" speed="3.65" length="2.34" shape="1205.11,931.41 1204.37,932.64 1203.59,933.08"/>
    </edge>
    <edge id=":1085546834_5" function="internal">
        <lane id=":1085546834_5_0" index="0" disallow="tram rail_urban rail rail_electric rail_fast ship" speed="3.65" length="2.34" shape="1203.59,933.08 1202.77,932.72 1201.92,931.56"/>
    </edge>
    <edge id=":1085546872_0" function="internal">
        <lane id=":1085546872_0_0" index="0" allow="pedestrian delivery bicycle" speed="5.56" length="4.39" shape="1581.61,998.91 1580.78,999.92 1580.16,1000.56 1579.46,1001.12 1578.39,1001.86"/>
    </edge>
    <edge id=":1085546872_1" function="internal">
        <lane id=":1085546872_1_0" index="0" allow="pedestrian bicycle" speed="3.06" length="2.60" width="2.00" shape="1581.61,998.91 1579.59,997.27"/>
    </edge>
    <edge id=":1085546872_2" function="internal">
        <lane id=":1085546872_2_0" index="0" allow="pedestrian delivery bicycle" speed="3.65" length="2.34" shape="1581.61,998.91 1580.23,999.34 1579.36,999.15"/>
    </edge>
    <edge id=":1085546872_9" function="internal">
        <lane id=":1085546872_9_0" index="0" allow="pedestrian delivery bicycle" speed="3.65" length="2.34" shape="1579.36,999.15 1578.99,998.33 1579.13,996.89"/>
    </edge>
    <edge id=":1085546872_3" function="internal">
        <lane id=":1085546872_3_0" index="0" allow="pedestrian delivery bicycle" speed="5.56" length="3.45" shape="1576.60,999.21 1577.44,998.63 1577.99,998.19 1578.47,997.68 1579.13,996.89"/>
    </edge>
    <edge id=":1085546872_4" function="internal">
        <lane id=":1085546872_4_0" index="0" allow="pedestrian bicycle" speed="4.17" length="3.61" width="2.00" shape="1576.60,999.21 1577.53,998.68 1578.22,998.39 1578.86,998.02 1579.59,997.27"/>
    </edge>
    <edge id=":1085546872_5" function="internal">
        <lane id=":1085546872_5_0" index="0" allow="pedestrian delivery bicycle" speed="3.65" length="2.34" shape="1576.60,999.21 1578.04,999.20 1578.82,999.64"/>
    </edge>
    <edge id=":1085546872_10" function="internal">
        <lane id=":1085546872_10_0" index="0" allow="pedestrian delivery bicycle" speed="3.65" length="2.34" shape="1578.82,999.64 1578.94,1000.53 1578.39,1001.86"/>
    </edge>
    <edge id=":1085546872_6" function="internal">
        <lane id=":1085546872_6_0" index="0" allow="pedestrian delivery bicycle" speed="4.17" length="3.61" shape="1576.93,999.71 1577.74,999.04 1578.16,998.45 1578.52,997.78 1579.13,996.89"/>
    </edge>
    <edge id=":1085546872_7" function="internal">
        <lane id=":1085546872_7_0" index="0" allow="pedestrian bicycle" speed="2.78" length="3.63" width="2.00" shape="1576.93,999.71 1577.82,999.10 1578.39,998.64 1578.90,998.10 1579.59,997.27"/>
    </edge>
    <edge id=":1085546872_8" function="internal">
        <lane id=":1085546872_8_0" index="0" allow="pedestrian delivery bicycle" speed="2.78" length="2.60" shape="1576.93,999.71 1578.39,1001.86"/>
    </edge>
    <edge id=":1085546880_0" function="internal">
        <lane id=":1085546880_0_0" index="0" allow="pedestrian delivery bicycle" speed="5.56" length="9.46" shape="1638.40,899.34 1635.96,899.95 1634.72,901.36 1633.75,903.34 1632.12,905.70"/>
    </edge>
    <edge id=":1085546880_1" function="internal">
        <lane id=":1085546880_1_0" index="0" allow="pedestrian delivery bicycle" speed="5.56" length="10.39" shape="1638.40,899.34 1628.02,899.82"/>
    </edge>
    <edge id=":1085546880_2" function="internal">
        <lane id=":1085546880_2_0" index="0" allow="pedestrian delivery bicycle" speed="3.65" length="2.34" shape="1638.40,899.34 1637.14,898.63 1636.68,897.86"/>
    </edge>
    <edge id=":1085546880_12" function="internal">
        <lane id=":1085546880_12_0" index="0" allow="pedestrian delivery bicycle" speed="3.65" length="2.34" shape="1636.68,897.86 1637.02,897.03 1638.15,896.14"/>
    </edge>
    <edge id=":1085546880_3" function="internal">
        <lane id=":1085546880_3_0" index="0" allow="pedestrian delivery bicycle" speed="5.56" length="10.29" shape="1627.87,896.63 1638.15,896.14"/>
    </edge>
    <edge id=":1085546880_4" function="internal">
        <lane id=":1085546880_4_0" index="0" allow="pedestrian delivery bicycle" speed="5.56" length="6.92" shape="1627.87,896.63 1633.06,896.96 1634.50,897.92"/>
    </edge>
    <edge id=":1085546880_5" function="internal">
        <lane id=":1085546880_5_0" index="0" allow="pedestrian delivery bicycle" speed="3.65" length="2.34" shape="1627.87,896.63 1629.11,897.37 1629.55,898.15"/>
    </edge>
    <edge id=":1085546880_13" function="internal">
        <lane id=":1085546880_13_0" index="0" allow="pedestrian delivery bicycle" speed="5.56" length="9.34" shape="1634.50,897.92 1635.50,898.59 1635.19,901.50 1632.12,905.70"/>
    </edge>
    <edge id=":1085546880_14" function="internal">
        <lane id=":1085546880_14_0" index="0" allow="pedestrian delivery bicycle" speed="3.65" length="2.34" shape="1629.55,898.15 1629.19,898.97 1628.02,899.82"/>
    </edge>
    <edge id=":1085546880_6" function="internal">
        <lane id=":1085546880_6_0" index="0" allow="pedestrian delivery bicycle" speed="4.67" length="6.66" shape="1629.76,903.54 1631.02,901.82 1631.15,900.63 1630.15,899.96 1628.02,899.82"/>
    </edge>
    <edge id=":1085546880_7" function="internal">
        <lane id=":1085546880_7_0" index="0" allow="pedestrian delivery bicycle" speed="5.56" length="11.68" shape="1629.76,903.54 1631.80,900.86 1633.35,898.54 1635.21,896.88 1638.15,896.14"/>
    </edge>
    <edge id=":1085546880_8" function="internal">
        <lane id=":1085546880_8_0" index="0" allow="pedestrian delivery bicycle" speed="3.65" length="4.67" shape="1629.76,903.54 1631.17,903.19 1632.03,903.44 1632.35,904.27 1632.12,905.70"/>
    </edge>
    <edge id=":1085546880_9" function="internal">
        <lane id=":1085546880_9_0" index="0" allow="pedestrian delivery bicycle" speed="4.17" length="9.06" shape="1630.94,904.61 1632.53,902.38 1632.57,900.84 1631.07,899.99 1628.02,899.82"/>
    </edge>
    <edge id=":1085546880_10" function="internal">
        <lane id=":1085546880_10_0" index="0" allow="pedestrian delivery bicycle" speed="4.17" length="11.72" shape="1630.94,904.61 1632.79,901.77 1633.94,899.08 1635.39,897.05 1638.15,896.14"/>
    </edge>
    <edge id=":1085546880_11" function="internal">
        <lane id=":1085546880_11_0" index="0" allow="pedestrian delivery bicycle" speed="2.41" length="1.61" shape="1630.94,904.61 1632.12,905.70"/>
    </edge>
    <edge id=":1085546887_0" function="internal">
        <lane id=":1085546887_0_0" index="0" allow="pedestrian bicycle" speed="2.78" length="4.33" width="2.00" shape="1340.20,885.81 1341.47,885.76 1342.38,885.84 1343.19,886.19 1344.20,886.93"/>
    </edge>
    <edge id=":1085546904_0" function="internal">
        <lane id=":1085546904_0_0" index="0" allow="pedestrian delivery bicycle" speed="5.56" length="5.83" shape="1575.74,917.74 1574.10,917.27 1573.01,916.77 1572.08,916.01 1570.93,914.74"/>
    </edge>
    <edge id=":1085546904_1" function="internal">
        <lane id=":1085546904_1_0" index="0" allow="pedestrian bicycle" speed="4.17" length="5.63" width="2.00" shape="1575.74,917.74 1574.33,917.10 1573.63,916.22 1573.08,915.09 1572.14,913.69"/>
    </edge>
    <edge id=":1085546904_2" function="internal">
        <lane id=":1085546904_2_0" index="0" allow="pedestrian delivery bicycle" speed="3.65" length="2.34" shape="1575.74,917.74 1574.79,916.66 1574.61,915.78"/>
    </edge>
    <edge id=":1085546904_9" function="internal">
        <lane id=":1085546904_9_0" index="0" allow="pedestrian delivery bicycle" speed="3.65" length="2.34" shape="1574.61,915.78 1575.21,915.12 1576.57,914.65"/>
    </edge>
    <edge id=":1085546904_3" function="internal">
        <lane id=":1085546904_3_0" index="0" allow="pedestrian delivery bicycle" speed="4.17" length="5.63" shape="1576.16,916.20 1574.49,915.96 1573.23,915.97 1572.13,915.73 1570.93,914.74"/>
    </edge>
    <edge id=":1085546904_4" function="internal">
        <lane id=":1085546904_4_0" index="0" allow="pedestrian bicycle" speed="2.78" length="4.87" width="2.00" shape="1576.16,916.20 1574.78,915.80 1573.87,915.38 1573.10,914.75 1572.14,913.69"/>
    </edge>
    <edge id=":1085546904_5" function="internal">